Circuit: * C:\Users\olaru\Documents\LTspiceXVII\Draft4.asc

Direct Newton iteration for .op point succeeded.

Date: Wed Oct 20 21:30:20 2021
Total elapsed time: 0.062 seconds.

tnom = 27
temp = 27
method = modified trap
totiter = 3905
traniter = 3896
tranpoints = 1697
accept = 1495
rejected = 202
matrix size = 24
fillins = 0
solver = Normal
Matrix Compiler1: 2.16 KB object code size  0.3/0.2/[0.1]
Matrix Compiler2: 2.62 KB object code size  0.2/0.2/[0.1]

