Circuit: * C:\Users\olaru\Documents\LTspiceXVII\Draft2.asc

.step v§eb=1.6
.step v§eb=2.6

Date: Fri Jun 11 00:03:25 2021
Total elapsed time: 0.052 seconds.

tnom = 27
temp = 27
method = trap
totiter = 521
traniter = 0
tranpoints = 0
accept = 0
rejected = 0
matrix size = 9
fillins = 0
solver = Normal
Matrix Compiler1: 456 bytes object code size  0.6/0.1/[0.0]
Matrix Compiler2: off  [0.1]/0.1/0.1

