Circuit: * C:\Users\olaru\Documents\LTspiceXVII\OpAmp2.asc

Direct Newton iteration for .op point succeeded.

Date: Wed May 19 11:19:44 2021
Total elapsed time: 0.042 seconds.

tnom = 27
temp = 27
method = modified trap
totiter = 662
traniter = 642
tranpoints = 322
accept = 321
rejected = 1
matrix size = 12
fillins = 2
solver = Normal
Matrix Compiler1: 678 bytes object code size  0.2/0.1/[0.1]
Matrix Compiler2: 1.16 KB object code size  0.1/0.1/[0.1]

